* NGSPICE file created from temp_sensor_adc_model.ext - technology: sky130A

.subckt temp_sensor_adc_model {adc_code\[0\]} {adc_code\[10\]} {adc_code\[11\]} {adc_code\[1\]}
+ {adc_code\[2\]} {adc_code\[3\]} {adc_code\[4\]} {adc_code\[5\]} {adc_code\[6\]}
+ {adc_code\[7\]} {adc_code\[8\]} {adc_code\[9\]} {sensor_temp_celsius\[0\]} {sensor_temp_celsius\[10\]}
+ {sensor_temp_celsius\[11\]} {sensor_temp_celsius\[12\]} {sensor_temp_celsius\[13\]}
+ {sensor_temp_celsius\[14\]} {sensor_temp_celsius\[15\]} {sensor_temp_celsius\[1\]}
+ {sensor_temp_celsius\[2\]} {sensor_temp_celsius\[3\]} {sensor_temp_celsius\[4\]}
+ {sensor_temp_celsius\[5\]} {sensor_temp_celsius\[6\]} {sensor_temp_celsius\[7\]}
+ VGND VPWR adc_valid avdd avss sample_req {sensor_temp_celsius\[9\]}
X0 a_5003_n12818# a_4978_n12867# a_4957_n12818# w_4887_n12929# sky130_fd_pr__pfet_01v8 ad=0.36 pd=3 as=0.36 ps=3 w=1.2 l=0.16
X1 a_278_n12147# a_253_n12192# a_232_n12147# a_180_n12235# sky130_fd_pr__nfet_01v8 ad=0.252 pd=2.28 as=0.252 ps=2.28 w=0.84 l=0.16
X2 a_1412_n12309# a_1387_n12354# a_1366_n12309# a_180_n12235# sky130_fd_pr__nfet_01v8 ad=0.252 pd=2.28 as=0.252 ps=2.28 w=0.84 l=0.16
X3 a_2546_n12471# a_2521_n12516# a_2500_n12471# a_180_n12235# sky130_fd_pr__nfet_01v8 ad=0.252 pd=2.28 as=0.252 ps=2.28 w=0.84 l=0.16
X4 a_4058_n12687# a_4033_n12732# a_4012_n12687# a_180_n12235# sky130_fd_pr__nfet_01v8 ad=0.252 pd=2.28 as=0.252 ps=2.28 w=0.84 l=0.16
X5 a_2735_n12494# a_2710_n12543# a_2689_n12494# w_2619_n12605# sky130_fd_pr__pfet_01v8 ad=0.48 pd=3.8 as=0.48 ps=3.8 w=1.6 l=0.16
X6 {sensor_temp_celsius\[9\]} {sensor_temp_celsius\[9\]} {sensor_temp_celsius\[9\]} w_n27_n12227# sky130_fd_pr__pfet_01v8 ad=0.3 pd=2.6 as=0.6 ps=5.2 w=1 l=0.16
X7 a_1223_n12278# a_1198_n12327# a_1177_n12278# w_1107_n12389# sky130_fd_pr__pfet_01v8 ad=0.36 pd=3 as=0.36 ps=3 w=1.2 l=0.16
X8 a_1979_n12386# a_1954_n12435# a_1933_n12386# w_1863_n12497# sky130_fd_pr__pfet_01v8 ad=0.42 pd=3.4 as=0.42 ps=3.4 w=1.4 l=0.16
X9 a_3680_n12633# a_3655_n12678# a_3634_n12633# a_180_n12235# sky130_fd_pr__nfet_01v8 ad=0.252 pd=2.28 as=0.252 ps=2.28 w=0.84 l=0.16
X10 a_2168_n12417# a_2143_n12462# a_2122_n12417# a_180_n12235# sky130_fd_pr__nfet_01v8 ad=0.252 pd=2.28 as=0.252 ps=2.28 w=0.84 l=0.16
X11 a_5192_n12849# a_5167_n12894# a_5146_n12849# a_180_n12235# sky130_fd_pr__nfet_01v8 ad=0.36 pd=3 as=0.36 ps=3 w=1.2 l=0.16
X12 a_3491_n12602# a_3466_n12651# a_3445_n12602# w_3375_n12713# sky130_fd_pr__pfet_01v8 ad=0.54 pd=4.2 as=0.54 ps=4.2 w=1.8 l=0.16
X13 a_4247_n12710# a_4222_n12759# a_4201_n12710# w_4131_n12821# sky130_fd_pr__pfet_01v8 ad=0.6 pd=4.6 as=0.6 ps=4.6 w=2 l=0.16
X14 a_656_n12201# a_631_n12246# a_610_n12201# a_180_n12235# sky130_fd_pr__nfet_01v8 ad=0.252 pd=2.28 as=0.252 ps=2.28 w=0.84 l=0.16
X15 a_467_n12170# a_442_n12219# a_421_n12170# w_351_n12281# sky130_fd_pr__pfet_01v8 ad=0.3 pd=2.6 as=0.3 ps=2.6 w=1 l=0.16
X16 a_4436_n12741# a_4411_n12786# a_4390_n12741# a_180_n12235# sky130_fd_pr__nfet_01v8 ad=0.252 pd=2.28 as=0.252 ps=2.28 w=0.84 l=0.16
X17 a_845_n12224# a_820_n12273# a_799_n12224# w_729_n12335# sky130_fd_pr__pfet_01v8 ad=0.36 pd=3 as=0.36 ps=3 w=1.2 l=0.16
X18 a_4625_n12764# a_4600_n12813# a_4579_n12764# w_4509_n12875# sky130_fd_pr__pfet_01v8 ad=0.72 pd=5.4 as=0.72 ps=5.4 w=2.4 l=0.16
X19 a_4814_n12795# a_4789_n12840# a_4768_n12795# a_180_n12235# sky130_fd_pr__nfet_01v8 ad=0.36 pd=3 as=0.36 ps=3 w=1.2 l=0.16
X20 a_1034_n12255# a_1009_n12300# a_988_n12255# a_180_n12235# sky130_fd_pr__nfet_01v8 ad=0.252 pd=2.28 as=0.252 ps=2.28 w=0.84 l=0.16
X21 a_1790_n12363# a_1765_n12408# a_1744_n12363# a_180_n12235# sky130_fd_pr__nfet_01v8 ad=0.252 pd=2.28 as=0.252 ps=2.28 w=0.84 l=0.16
X22 a_3869_n12656# a_3844_n12705# a_3823_n12656# w_3753_n12767# sky130_fd_pr__pfet_01v8 ad=0.6 pd=4.6 as=0.6 ps=4.6 w=2 l=0.16
X23 a_3302_n12579# a_3277_n12624# a_3256_n12579# a_180_n12235# sky130_fd_pr__nfet_01v8 ad=0.252 pd=2.28 as=0.252 ps=2.28 w=0.84 l=0.16
X24 a_2357_n12440# a_2332_n12489# a_2311_n12440# w_2241_n12551# sky130_fd_pr__pfet_01v8 ad=0.48 pd=3.8 as=0.48 ps=3.8 w=1.6 l=0.16
X25 a_1601_n12332# a_1576_n12381# a_1555_n12332# w_1485_n12443# sky130_fd_pr__pfet_01v8 ad=0.42 pd=3.4 as=0.42 ps=3.4 w=1.4 l=0.16
X26 a_2924_n12525# a_2899_n12570# a_2878_n12525# a_180_n12235# sky130_fd_pr__nfet_01v8 ad=0.252 pd=2.28 as=0.252 ps=2.28 w=0.84 l=0.16
X27 a_3113_n12548# a_3088_n12597# a_3067_n12548# w_2997_n12659# sky130_fd_pr__pfet_01v8 ad=0.54 pd=4.2 as=0.54 ps=4.2 w=1.8 l=0.16
C0 a_2332_n12489# a_2311_n12440# 0.027955f
C1 a_4789_n12840# w_4887_n12929# 0.006982f
C2 w_4131_n12821# a_4768_n12795# 8.11e-20
C3 a_4058_n12687# w_4131_n12821# 0.006502f
C4 a_3680_n12633# a_3491_n12602# 1.8e-20
C5 a_1198_n12327# a_1366_n12309# 0.003659f
C6 a_2924_n12525# a_2332_n12489# 1.98e-20
C7 a_4625_n12764# a_4247_n12710# 4.4e-21
C8 {adc_code\[1\]} {adc_code\[11\]} 0.0704f
C9 VGND VPWR 0.0352f
C10 a_3634_n12633# a_3088_n12597# 2.39e-20
C11 a_467_n12170# a_799_n12224# 0.001751f
C12 a_631_n12246# a_1387_n12354# 5.04e-19
C13 a_421_n12170# a_442_n12219# 0.0242f
C14 a_4789_n12840# a_4625_n12764# 0.007387f
C15 a_2735_n12494# a_3113_n12548# 4.4e-21
C16 a_988_n12255# w_729_n12335# 0.009105f
C17 a_421_n12170# w_351_n12281# 0.082124f
C18 a_988_n12255# a_845_n12224# 0.016618f
C19 a_2899_n12570# a_2122_n12417# 8.03e-21
C20 a_1954_n12435# a_1223_n12278# 3.86e-21
C21 a_4012_n12687# w_3753_n12767# 0.009105f
C22 a_2735_n12494# w_2997_n12659# 0.002718f
C23 a_3302_n12579# a_3256_n12579# 0.133662f
C24 a_4957_n12818# a_4978_n12867# 0.02553f
C25 a_1933_n12386# a_2122_n12417# 1.8e-20
C26 w_3375_n12713# a_3466_n12651# 0.102301f
C27 a_4600_n12813# a_4247_n12710# 8.46e-20
C28 a_3634_n12633# a_3655_n12678# 0.024659f
C29 a_3869_n12656# a_3491_n12602# 4.4e-21
C30 a_421_n12170# a_820_n12273# 6.89e-21
C31 a_2710_n12543# a_2899_n12570# 0.001694f
C32 a_1009_n12300# a_1223_n12278# 1.92e-19
C33 a_656_n12201# w_729_n12335# 0.007422f
C34 a_4789_n12840# a_4600_n12813# 0.001694f
C35 a_2710_n12543# a_1933_n12386# 1.52e-21
C36 a_1198_n12327# a_1933_n12386# 1.28e-20
C37 a_4222_n12759# a_3655_n12678# 1.77e-19
C38 a_3655_n12678# a_4390_n12741# 2.97e-22
C39 a_4579_n12764# a_4390_n12741# 3.6e-20
C40 a_4957_n12818# a_4814_n12795# 0.030363f
C41 a_4222_n12759# a_4579_n12764# 0.00172f
C42 a_3823_n12656# a_4411_n12786# 2.93e-20
C43 a_1198_n12327# w_351_n12281# 3.16e-21
C44 a_421_n12170# a_232_n12147# 1.8e-20
C45 {adc_code\[11\]} {adc_code\[10\]} 0.0704f
C46 a_1979_n12386# a_2143_n12462# 0.007387f
C47 a_2899_n12570# a_3067_n12548# 0.009834f
C48 a_2735_n12494# a_2357_n12440# 4.4e-21
C49 {adc_code\[8\]} {adc_code\[7\]} 0.0704f
C50 a_2710_n12543# a_2689_n12494# 0.027955f
C51 a_2521_n12516# a_2878_n12525# 0.002209f
C52 a_4768_n12795# w_4509_n12875# 0.012286f
C53 a_3844_n12705# a_3277_n12624# 1.77e-19
C54 a_2878_n12525# w_2619_n12605# 0.009014f
C55 a_988_n12255# a_1765_n12408# 8.03e-21
C56 a_4201_n12710# a_4058_n12687# 0.026302f
C57 a_2899_n12570# a_3088_n12597# 0.002134f
C58 w_4131_n12821# a_4247_n12710# 0.142985f
C59 a_5167_n12894# a_4978_n12867# 0.002562f
C60 a_4012_n12687# a_3655_n12678# 0.002209f
C61 a_1933_n12386# a_1744_n12363# 3.6e-20
C62 w_4131_n12821# a_4789_n12840# 3.25e-19
C63 a_1979_n12386# a_1765_n12408# 3.1e-19
C64 w_1485_n12443# a_1933_n12386# 7.66e-19
C65 a_2500_n12471# a_3277_n12624# 8.03e-21
C66 a_3634_n12633# a_3466_n12651# 0.003659f
C67 a_3844_n12705# a_4436_n12741# 1.98e-20
C68 a_3844_n12705# a_4033_n12732# 0.001694f
C69 a_1198_n12327# w_1107_n12389# 0.102071f
C70 a_3655_n12678# a_2899_n12570# 5.04e-19
C71 a_1555_n12332# w_729_n12335# 4.99e-20
C72 w_3753_n12767# a_4411_n12786# 3.54e-19
C73 a_1933_n12386# a_1576_n12381# 0.00172f
C74 a_5167_n12894# a_4814_n12795# 0.001234f
C75 w_1863_n12497# a_2143_n12462# 0.006847f
C76 a_2689_n12494# a_3088_n12597# 5.28e-20
C77 w_1485_n12443# a_820_n12273# 6.79e-20
C78 a_4957_n12818# w_4887_n12929# 0.092858f
C79 a_3844_n12705# a_3445_n12602# 5.28e-20
C80 w_3375_n12713# a_3277_n12624# 0.005446f
C81 {adc_code\[4\]} {adc_code\[5\]} 0.0704f
C82 a_3844_n12705# a_4625_n12764# 1.13e-20
C83 a_1177_n12278# a_1223_n12278# 0.189612f
C84 a_1387_n12354# w_729_n12335# 3.54e-19
C85 a_1555_n12332# a_2143_n12462# 2.93e-20
C86 a_1387_n12354# a_845_n12224# 3.51e-20
C87 w_2241_n12551# a_2878_n12525# 8.73e-20
C88 w_1107_n12389# a_1744_n12363# 8.14e-20
C89 w_1485_n12443# w_1107_n12389# 0.006318f
C90 w_1863_n12497# a_1765_n12408# 0.006383f
C91 a_1790_n12363# a_2143_n12462# 8.32e-20
C92 a_1979_n12386# w_1863_n12497# 0.106221f
C93 a_2899_n12570# a_2311_n12440# 2.93e-20
C94 a_5192_n12849# a_4789_n12840# 3.3e-20
C95 a_4033_n12732# w_3375_n12713# 3.54e-19
C96 w_4509_n12875# a_4247_n12710# 0.003544f
C97 a_4012_n12687# a_3466_n12651# 2.39e-20
C98 a_4978_n12867# a_4390_n12741# 1.51e-20
C99 {sensor_temp_celsius\[4\]} {sensor_temp_celsius\[5\]} 0.0704f
C100 a_3823_n12656# w_3753_n12767# 0.14241f
C101 a_1198_n12327# a_421_n12170# 3.44e-21
C102 a_2924_n12525# a_2899_n12570# 0.024659f
C103 a_2168_n12417# a_2143_n12462# 0.024659f
C104 a_1177_n12278# a_631_n12246# 1.79e-20
C105 w_1107_n12389# a_1576_n12381# 0.001807f
C106 a_253_n12192# a_799_n12224# 1.79e-20
C107 a_1412_n12309# a_1366_n12309# 0.133662f
C108 a_4201_n12710# a_4247_n12710# 0.313945f
C109 a_4789_n12840# w_4509_n12875# 0.006847f
C110 a_5167_n12894# a_4436_n12741# 1.33e-20
C111 a_5003_n12818# a_4789_n12840# 1.29e-19
C112 avdd avss 0.0352f
C113 a_1555_n12332# a_1765_n12408# 2.28e-19
C114 a_1387_n12354# a_2143_n12462# 5.04e-19
C115 a_3466_n12651# a_2899_n12570# 7.73e-19
C116 a_4957_n12818# a_4600_n12813# 0.00172f
C117 a_3655_n12678# a_4411_n12786# 5.04e-19
C118 {sensor_temp_celsius\[9\]} a_278_n12147# 1.87e-19
C119 a_4579_n12764# a_4411_n12786# 0.009834f
C120 w_3375_n12713# a_3445_n12602# 0.128346f
C121 a_1790_n12363# a_1765_n12408# 0.024659f
C122 a_2710_n12543# a_2122_n12417# 6.51e-22
C123 a_4201_n12710# a_4789_n12840# 1.19e-20
C124 a_3302_n12579# a_3113_n12548# 1.8e-20
C125 a_4222_n12759# a_4814_n12795# 2.05e-20
C126 a_5167_n12894# w_4887_n12929# 0.007255f
C127 w_n27_n12227# {sensor_temp_celsius\[7\]} 0.001309f
C128 a_631_n12246# a_278_n12147# 8.32e-20
C129 a_988_n12255# a_1387_n12354# 6.52e-20
C130 a_3634_n12633# a_3277_n12624# 0.002209f
C131 a_1009_n12300# w_729_n12335# 0.006847f
C132 a_1009_n12300# a_845_n12224# 0.007387f
C133 a_799_n12224# a_442_n12219# 0.00172f
C134 a_1765_n12408# a_2168_n12417# 3.3e-20
C135 {sensor_temp_celsius\[9\]} a_610_n12201# 2.71e-19
C136 a_1979_n12386# a_2168_n12417# 1.8e-20
C137 a_3823_n12656# a_3088_n12597# 1.28e-20
C138 a_799_n12224# w_351_n12281# 7.11e-19
C139 w_2619_n12605# a_2143_n12462# 5.48e-20
C140 a_5167_n12894# a_4625_n12764# 2.42e-20
C141 a_631_n12246# a_610_n12201# 0.024659f
C142 a_1979_n12386# a_1387_n12354# 1.52e-20
C143 {adc_code\[0\]} {adc_code\[10\]} 0.0704f
C144 a_2689_n12494# a_3466_n12651# 8.79e-21
C145 a_2735_n12494# a_2332_n12489# 4.44e-20
C146 a_1954_n12435# a_2143_n12462# 0.001694f
C147 a_656_n12201# a_1387_n12354# 9.67e-21
C148 a_3844_n12705# w_4131_n12821# 0.001608f
C149 a_799_n12224# a_820_n12273# 0.02553f
C150 a_4033_n12732# a_3634_n12633# 6.52e-20
C151 a_3491_n12602# a_3113_n12548# 4.4e-21
C152 a_4058_n12687# a_3869_n12656# 1.8e-20
C153 a_2521_n12516# a_1765_n12408# 5.04e-19
C154 a_5146_n12849# a_4978_n12867# 0.003659f
C155 a_2710_n12543# a_3067_n12548# 0.00172f
C156 w_4131_n12821# a_4957_n12818# 4.99e-20
C157 a_1979_n12386# a_2521_n12516# 3.51e-20
C158 a_3823_n12656# a_3655_n12678# 0.009834f
C159 w_1485_n12443# a_2122_n12417# 8.14e-20
C160 a_1601_n12332# a_2143_n12462# 3.51e-20
C161 a_2735_n12494# w_3375_n12713# 3.22e-19
C162 a_1790_n12363# w_1863_n12497# 0.007422f
C163 a_1979_n12386# w_2619_n12605# 3.22e-19
C164 a_4222_n12759# a_4436_n12741# 1.69e-19
C165 a_4436_n12741# a_4390_n12741# 0.133662f
C166 a_2546_n12471# a_3277_n12624# 9.67e-21
C167 a_1412_n12309# a_820_n12273# 1.98e-20
C168 a_4033_n12732# a_4222_n12759# 0.002134f
C169 a_1954_n12435# a_1765_n12408# 0.003392f
C170 a_4033_n12732# a_4390_n12741# 0.002209f
C171 a_988_n12255# a_1009_n12300# 0.024659f
C172 a_2710_n12543# a_3088_n12597# 7.17e-19
C173 a_3634_n12633# a_3445_n12602# 1.8e-20
C174 a_1979_n12386# a_1954_n12435# 0.026776f
C175 a_1576_n12381# a_2122_n12417# 2.39e-20
C176 a_1198_n12327# a_1744_n12363# 2.39e-20
C177 a_1198_n12327# w_1485_n12443# 0.001915f
C178 a_2521_n12516# a_3256_n12579# 2.97e-22
C179 a_4012_n12687# a_3277_n12624# 2.97e-22
C180 a_3088_n12597# w_3753_n12767# 6.79e-20
C181 a_467_n12170# {sensor_temp_celsius\[9\]} 4.44e-20
C182 a_1765_n12408# a_1009_n12300# 5.04e-19
C183 a_4222_n12759# w_4887_n12929# 1.07e-20
C184 w_2619_n12605# a_3256_n12579# 8.11e-20
C185 a_1601_n12332# a_1765_n12408# 0.007387f
C186 a_1387_n12354# w_1863_n12497# 2.52e-19
C187 a_631_n12246# a_1034_n12255# 3.3e-20
C188 w_2241_n12551# a_2143_n12462# 0.005939f
C189 a_467_n12170# a_631_n12246# 0.007387f
C190 a_4222_n12759# a_3445_n12602# 1.64e-20
C191 a_656_n12201# a_1009_n12300# 8.32e-20
C192 a_1198_n12327# a_1576_n12381# 7.17e-19
C193 a_4222_n12759# a_4625_n12764# 4.44e-20
C194 a_3067_n12548# a_3088_n12597# 0.029082f
C195 a_4012_n12687# a_4033_n12732# 0.024659f
C196 w_1863_n12497# a_2521_n12516# 3.54e-19
C197 a_3655_n12678# w_3753_n12767# 0.005939f
C198 a_4579_n12764# w_3753_n12767# 4.99e-20
C199 {adc_code\[2\]} {adc_code\[1\]} 0.0704f
C200 a_1555_n12332# a_1387_n12354# 0.007703f
C201 a_3844_n12705# w_4509_n12875# 3.66e-19
C202 a_1790_n12363# a_1387_n12354# 3.3e-20
C203 a_3823_n12656# a_3466_n12651# 0.00172f
C204 w_2241_n12551# a_1765_n12408# 1.44e-19
C205 w_1485_n12443# a_1744_n12363# 0.008185f
C206 a_2311_n12440# a_2122_n12417# 3.6e-20
C207 a_2357_n12440# a_2143_n12462# 3.57e-19
C208 a_1954_n12435# w_1863_n12497# 0.102671f
C209 a_1177_n12278# w_729_n12335# 8.42e-19
C210 w_2241_n12551# a_1979_n12386# 0.002173f
C211 a_1177_n12278# a_845_n12224# 0.001751f
C212 a_4957_n12818# w_4509_n12875# 5.44e-19
C213 a_4201_n12710# a_3844_n12705# 0.00172f
C214 a_5003_n12818# a_4957_n12818# 0.189612f
C215 a_3655_n12678# a_3067_n12548# 2.93e-20
C216 a_4222_n12759# a_4600_n12813# 0.002644f
C217 a_3113_n12548# a_3256_n12579# 0.016618f
C218 a_4814_n12795# a_4411_n12786# 3.3e-20
C219 a_2689_n12494# a_3277_n12624# 2.93e-20
C220 a_3869_n12656# a_4247_n12710# 4.4e-21
C221 {sensor_temp_celsius\[14\]} {sensor_temp_celsius\[13\]} 0.0704f
C222 a_1790_n12363# a_2521_n12516# 9.67e-21
C223 a_1576_n12381# a_1744_n12363# 0.003659f
C224 a_2710_n12543# a_2311_n12440# 7.08e-20
C225 w_1485_n12443# a_1576_n12381# 0.102425f
C226 w_2997_n12659# a_3256_n12579# 0.009105f
C227 a_1601_n12332# w_1863_n12497# 0.002371f
C228 {sensor_temp_celsius\[1\]} {sensor_temp_celsius\[15\]} 0.0704f
C229 a_3655_n12678# a_3088_n12597# 2.9e-20
C230 a_2878_n12525# a_2332_n12489# 2.39e-20
C231 w_729_n12335# a_278_n12147# 9.42e-20
C232 a_3445_n12602# a_2899_n12570# 3.37e-20
C233 a_5146_n12849# w_4887_n12929# 0.012195f
C234 a_1555_n12332# a_1954_n12435# 5.4e-20
C235 a_2710_n12543# a_2924_n12525# 1.69e-19
C236 a_2521_n12516# a_2168_n12417# 8.32e-20
C237 {sensor_temp_celsius\[5\]} {sensor_temp_celsius\[6\]} 0.0704f
C238 a_1765_n12408# a_2357_n12440# 1.52e-20
C239 a_1979_n12386# a_2357_n12440# 4.4e-21
C240 a_1555_n12332# a_1009_n12300# 1.79e-20
C241 a_1555_n12332# a_1601_n12332# 0.220695f
C242 a_5167_n12894# a_5192_n12849# 0.027173f
C243 a_1790_n12363# a_1601_n12332# 1.8e-20
C244 a_3466_n12651# w_3753_n12767# 0.001924f
C245 a_1954_n12435# a_2168_n12417# 1.69e-19
C246 a_1198_n12327# a_799_n12224# 2.49e-20
C247 a_1177_n12278# a_988_n12255# 3.6e-20
C248 w_2241_n12551# w_1863_n12497# 0.009074f
C249 a_4201_n12710# w_3375_n12713# 4.99e-20
C250 a_4222_n12759# w_4131_n12821# 0.102552f
C251 a_2924_n12525# a_3067_n12548# 0.026302f
C252 w_4131_n12821# a_4390_n12741# 0.009014f
C253 a_1954_n12435# a_1387_n12354# 7.04e-19
C254 a_5167_n12894# w_4509_n12875# 3.39e-19
C255 a_5167_n12894# a_5003_n12818# 0.004695f
C256 a_1177_n12278# a_1765_n12408# 2.93e-20
C257 a_4436_n12741# a_4411_n12786# 0.024659f
C258 a_3088_n12597# a_2311_n12440# 3.06e-21
C259 a_2521_n12516# w_2619_n12605# 0.005446f
C260 w_1485_n12443# a_2311_n12440# 4.37e-20
C261 a_3466_n12651# a_3067_n12548# 7.08e-20
C262 a_5146_n12849# a_4600_n12813# 2.41e-20
C263 a_1601_n12332# a_1387_n12354# 3.1e-19
C264 a_1412_n12309# a_1198_n12327# 1.69e-19
C265 a_1954_n12435# a_2521_n12516# 2.9e-20
C266 a_1223_n12278# a_1366_n12309# 0.016618f
C267 a_2735_n12494# a_2899_n12570# 0.007387f
C268 w_4887_n12929# a_4411_n12786# 9.68e-20
C269 {sensor_temp_celsius\[11\]} {sensor_temp_celsius\[10\]} 0.0704f
C270 a_1576_n12381# a_2311_n12440# 1.28e-20
C271 a_1954_n12435# w_2619_n12605# 5.65e-20
C272 a_3844_n12705# a_3491_n12602# 0.001938f
C273 a_3823_n12656# a_3277_n12624# 4.96e-20
C274 a_4625_n12764# a_4411_n12786# 3.57e-19
C275 a_1034_n12255# a_845_n12224# 1.8e-20
C276 w_2241_n12551# a_2168_n12417# 0.007422f
C277 w_3375_n12713# a_3302_n12579# 0.006502f
C278 a_467_n12170# w_729_n12335# 6.53e-19
C279 a_467_n12170# a_845_n12224# 4.4e-21
C280 a_3655_n12678# a_2924_n12525# 9.67e-21
C281 a_631_n12246# a_1366_n12309# 2.97e-22
C282 a_2521_n12516# a_3113_n12548# 2.77e-20
C283 a_1954_n12435# a_1601_n12332# 0.003212f
C284 a_799_n12224# a_1576_n12381# 3.41e-21
C285 a_2735_n12494# a_2689_n12494# 0.251778f
C286 a_3655_n12678# a_3466_n12651# 0.001694f
C287 a_656_n12201# a_610_n12201# 0.133662f
C288 a_4033_n12732# a_3823_n12656# 2.28e-19
C289 {sensor_temp_celsius\[9\]} a_253_n12192# 0.016078f
C290 a_1412_n12309# w_1485_n12443# 0.007422f
C291 w_2997_n12659# a_2521_n12516# 6.19e-20
C292 a_1601_n12332# a_1009_n12300# 1.52e-20
C293 w_2241_n12551# a_2521_n12516# 0.006847f
C294 a_1223_n12278# a_442_n12219# 1.13e-20
C295 a_4600_n12813# a_4411_n12786# 0.002134f
C296 w_2997_n12659# w_2619_n12605# 0.011479f
C297 a_4222_n12759# w_4509_n12875# 0.001578f
C298 a_2710_n12543# a_3277_n12624# 2.9e-20
C299 a_5003_n12818# a_4222_n12759# 1.17e-20
C300 a_2500_n12471# a_2143_n12462# 0.002209f
C301 w_2241_n12551# w_2619_n12605# 0.00849f
C302 a_3491_n12602# w_3375_n12713# 0.130724f
C303 a_3869_n12656# a_3844_n12705# 0.030168f
C304 a_4201_n12710# a_4390_n12741# 1.8e-20
C305 w_3753_n12767# a_3277_n12624# 6.96e-20
C306 a_4201_n12710# a_4222_n12759# 0.030168f
C307 {sensor_temp_celsius\[9\]} a_442_n12219# 0.001754f
C308 a_2332_n12489# a_2143_n12462# 0.002134f
C309 avdd adc_valid 0.0352f
C310 a_988_n12255# a_1034_n12255# 0.133662f
C311 {sensor_temp_celsius\[9\]} w_351_n12281# 0.004317f
C312 w_2241_n12551# a_1954_n12435# 0.001924f
C313 a_820_n12273# a_1223_n12278# 4.44e-20
C314 a_631_n12246# a_442_n12219# 0.001694f
C315 a_4789_n12840# a_4768_n12795# 0.027173f
C316 a_4579_n12764# a_4978_n12867# 3.27e-20
C317 a_4058_n12687# a_4789_n12840# 7.67e-21
C318 a_1765_n12408# a_1034_n12255# 9.67e-21
C319 a_631_n12246# w_351_n12281# 0.006355f
C320 {adc_code\[9\]} {sensor_temp_celsius\[0\]} 0.0352f
C321 a_2521_n12516# a_2357_n12440# 0.007387f
C322 a_3067_n12548# a_3277_n12624# 2.28e-19
C323 a_1765_n12408# a_2500_n12471# 2.97e-22
C324 {sensor_temp_celsius\[9\]} a_820_n12273# 1.94e-19
C325 w_2241_n12551# a_1601_n12332# 2.47e-19
C326 a_4033_n12732# w_3753_n12767# 0.006847f
C327 w_2619_n12605# a_2357_n12440# 0.002666f
C328 {adc_code\[9\]} {adc_code\[8\]} 0.0704f
C329 a_467_n12170# a_656_n12201# 1.8e-20
C330 w_2997_n12659# a_3113_n12548# 0.130724f
C331 a_1177_n12278# a_1387_n12354# 2.28e-19
C332 a_1765_n12408# a_2332_n12489# 0.001539f
C333 a_631_n12246# a_820_n12273# 0.007461f
C334 w_n27_n12227# a_610_n12201# 3.35e-20
C335 a_3823_n12656# a_4600_n12813# 5.23e-21
C336 w_4131_n12821# a_4411_n12786# 0.006729f
C337 a_1979_n12386# a_2332_n12489# 0.001938f
C338 w_1107_n12389# a_1223_n12278# 0.092858f
C339 a_4201_n12710# a_4012_n12687# 3.6e-20
C340 a_5192_n12849# a_5146_n12849# 0.189612f
C341 a_3088_n12597# a_3277_n12624# 0.001694f
C342 a_1954_n12435# a_2357_n12440# 4.44e-20
C343 a_2899_n12570# a_2878_n12525# 0.024659f
C344 a_2710_n12543# a_3445_n12602# 1.28e-20
C345 {sensor_temp_celsius\[9\]} a_232_n12147# 0.025511f
C346 a_5146_n12849# w_4509_n12875# 8.73e-20
C347 a_5003_n12818# a_5146_n12849# 0.027864f
C348 a_631_n12246# a_232_n12147# 6.52e-20
C349 a_3491_n12602# a_3634_n12633# 0.016618f
C350 a_631_n12246# w_1107_n12389# 5e-19
C351 {sensor_temp_celsius\[9\]} {sensor_temp_celsius\[5\]} 1.03e-19
C352 a_1177_n12278# a_1954_n12435# 3.41e-21
C353 a_1387_n12354# a_610_n12201# 8.03e-21
C354 a_2689_n12494# a_2878_n12525# 1.8e-20
C355 w_1863_n12497# a_2500_n12471# 8.73e-20
C356 a_3680_n12633# a_3634_n12633# 0.133662f
C357 a_3491_n12602# a_4222_n12759# 1.85e-20
C358 w_2997_n12659# a_2357_n12440# 3.06e-19
C359 a_1177_n12278# a_1009_n12300# 0.002781f
C360 w_1863_n12497# a_2332_n12489# 0.00209f
C361 {sensor_temp_celsius\[14\]} {sensor_temp_celsius\[15\]} 0.0704f
C362 a_4600_n12813# w_3753_n12767# 8.93e-20
C363 a_3445_n12602# a_3088_n12597# 0.00172f
C364 w_2241_n12551# a_2357_n12440# 0.118462f
C365 a_4579_n12764# a_4436_n12741# 0.026302f
C366 w_729_n12335# a_1366_n12309# 8.73e-20
C367 a_5192_n12849# a_4411_n12786# 8.69e-21
C368 a_4033_n12732# a_4579_n12764# 5.32e-20
C369 a_2735_n12494# a_2710_n12543# 0.027955f
C370 a_4789_n12840# a_4247_n12710# 1.4e-20
C371 a_2899_n12570# a_3302_n12579# 3.3e-20
C372 a_1009_n12300# a_278_n12147# 9.67e-21
C373 w_4509_n12875# a_4411_n12786# 0.005939f
C374 a_421_n12170# {sensor_temp_celsius\[9\]} 0.002089f
C375 a_5003_n12818# a_4411_n12786# 1.52e-20
C376 a_1555_n12332# a_2332_n12489# 3.73e-22
C377 a_253_n12192# w_729_n12335# 1.12e-19
C378 a_3655_n12678# a_3445_n12602# 2.28e-19
C379 a_1790_n12363# a_2332_n12489# 1.82e-21
C380 a_2924_n12525# a_3277_n12624# 8.32e-20
C381 a_253_n12192# a_845_n12224# 1.52e-20
C382 a_4201_n12710# a_4411_n12786# 2.28e-19
C383 a_421_n12170# a_631_n12246# 2.28e-19
C384 a_1009_n12300# a_610_n12201# 6.52e-20
C385 a_4579_n12764# a_4625_n12764# 0.376112f
C386 a_2735_n12494# a_3067_n12548# 0.006584f
C387 a_2143_n12462# a_1366_n12309# 8.03e-21
C388 a_1387_n12354# a_1034_n12255# 8.32e-20
C389 a_4058_n12687# a_3844_n12705# 1.69e-19
C390 a_3466_n12651# a_3277_n12624# 0.002134f
C391 a_3869_n12656# a_4222_n12759# 0.003262f
C392 a_2546_n12471# a_2143_n12462# 3.3e-20
C393 a_1198_n12327# a_1223_n12278# 0.02553f
C394 a_3491_n12602# a_2899_n12570# 2.77e-20
C395 a_4814_n12795# a_4978_n12867# 0.001411f
C396 w_4131_n12821# w_3753_n12767# 0.013301f
C397 a_4957_n12818# a_4768_n12795# 1.8e-20
C398 a_2735_n12494# a_3088_n12597# 0.001938f
C399 w_729_n12335# a_442_n12219# 0.00183f
C400 {sensor_temp_celsius\[12\]} {sensor_temp_celsius\[13\]} 0.0704f
C401 a_845_n12224# a_442_n12219# 4.44e-20
C402 w_729_n12335# w_351_n12281# 0.00369f
C403 a_2521_n12516# a_2500_n12471# 0.024659f
C404 a_1765_n12408# a_1366_n12309# 6.52e-20
C405 a_4579_n12764# a_4600_n12813# 0.032246f
C406 a_4033_n12732# a_3466_n12651# 2.9e-20
C407 a_1198_n12327# a_631_n12246# 1.21e-19
C408 a_2521_n12516# a_2332_n12489# 0.001694f
C409 a_2899_n12570# a_2143_n12462# 5.04e-19
C410 a_820_n12273# w_729_n12335# 0.102702f
C411 a_820_n12273# a_845_n12224# 0.02553f
C412 a_988_n12255# a_253_n12192# 2.97e-22
C413 {sensor_temp_celsius\[4\]} {sensor_temp_celsius\[3\]} 0.0704f
C414 w_2619_n12605# a_2332_n12489# 0.001608f
C415 a_1954_n12435# a_2500_n12471# 2.39e-20
C416 a_3869_n12656# a_4012_n12687# 0.016618f
C417 a_1933_n12386# a_2143_n12462# 2.28e-19
C418 a_1034_n12255# a_1009_n12300# 0.024659f
C419 a_3445_n12602# a_3466_n12651# 0.029082f
C420 a_1954_n12435# a_2332_n12489# 7.17e-19
C421 a_467_n12170# a_1009_n12300# 3.51e-20
C422 w_1485_n12443# a_1223_n12278# 0.001452f
C423 a_3844_n12705# a_3113_n12548# 6.28e-19
C424 a_656_n12201# a_253_n12192# 3.3e-20
C425 a_988_n12255# a_442_n12219# 2.39e-20
C426 a_4978_n12867# a_4436_n12741# 1.78e-20
C427 w_1107_n12389# w_729_n12335# 0.003304f
C428 {sensor_temp_celsius\[9\]} {sensor_temp_celsius\[4\]} 2.12e-20
C429 a_3844_n12705# w_2997_n12659# 6e-20
C430 w_1107_n12389# a_845_n12224# 0.001516f
C431 a_5167_n12894# a_4768_n12795# 4.47e-20
C432 a_1601_n12332# a_2332_n12489# 1.93e-19
C433 a_988_n12255# w_351_n12281# 8.14e-20
C434 {adc_code\[5\]} {adc_code\[6\]} 0.0704f
C435 a_2689_n12494# a_2143_n12462# 1.84e-20
C436 a_1576_n12381# a_1223_n12278# 0.001888f
C437 a_2710_n12543# a_2878_n12525# 0.003659f
C438 {adc_code\[6\]} {adc_code\[7\]} 0.0704f
C439 w_4131_n12821# a_3655_n12678# 6.96e-20
C440 a_1933_n12386# a_1765_n12408# 0.007703f
C441 w_4131_n12821# a_4579_n12764# 0.003246f
C442 a_4978_n12867# w_4887_n12929# 0.10199f
C443 a_1979_n12386# a_1933_n12386# 0.220695f
C444 a_3844_n12705# a_4247_n12710# 4.44e-20
C445 a_3113_n12548# a_2332_n12489# 1.13e-20
C446 a_656_n12201# a_442_n12219# 1.69e-19
C447 a_988_n12255# a_820_n12273# 0.003659f
C448 a_4033_n12732# a_4814_n12795# 8.69e-21
C449 a_2899_n12570# a_3256_n12579# 0.002209f
C450 a_3680_n12633# a_4411_n12786# 9.67e-21
C451 a_2735_n12494# a_2924_n12525# 1.8e-20
C452 w_2241_n12551# a_2500_n12471# 0.009105f
C453 a_4201_n12710# w_3753_n12767# 0.002145f
C454 w_2997_n12659# a_2332_n12489# 6.79e-20
C455 a_4625_n12764# a_4978_n12867# 0.002056f
C456 a_2878_n12525# a_3067_n12548# 3.6e-20
C457 a_2735_n12494# a_3466_n12651# 9.94e-21
C458 w_3375_n12713# a_3113_n12548# 0.003219f
C459 w_2241_n12551# a_2332_n12489# 0.102709f
C460 a_4814_n12795# w_4887_n12929# 0.010814f
C461 a_1555_n12332# a_1366_n12309# 3.6e-20
C462 a_4957_n12818# a_4789_n12840# 0.002446f
C463 w_2997_n12659# w_3375_n12713# 0.010895f
C464 a_4033_n12732# a_3277_n12624# 5.04e-19
C465 a_253_n12192# w_n27_n12227# 0.00476f
C466 a_4814_n12795# a_4625_n12764# 1.8e-20
C467 a_3491_n12602# a_3823_n12656# 0.009268f
C468 w_1107_n12389# a_1765_n12408# 3.18e-19
C469 a_3869_n12656# a_4411_n12786# 3.51e-20
C470 a_2500_n12471# a_2357_n12440# 0.016618f
C471 a_2710_n12543# a_3302_n12579# 1.98e-20
C472 a_1933_n12386# w_1863_n12497# 0.106221f
C473 a_1387_n12354# a_1366_n12309# 0.024659f
C474 a_4222_n12759# a_4768_n12795# 2.41e-20
C475 a_2332_n12489# a_2357_n12440# 0.027955f
C476 w_4131_n12821# a_3466_n12651# 5.65e-20
C477 a_3680_n12633# a_3823_n12656# 0.026302f
C478 a_3445_n12602# a_3277_n12624# 0.009834f
C479 a_3655_n12678# a_2878_n12525# 8.03e-21
C480 a_4033_n12732# a_4436_n12741# 3.3e-20
C481 {adc_code\[4\]} {adc_code\[3\]} 0.0704f
C482 a_4579_n12764# w_4509_n12875# 0.166933f
C483 w_n27_n12227# a_442_n12219# 9.56e-19
C484 a_1177_n12278# a_1034_n12255# 0.026302f
C485 a_2689_n12494# w_1863_n12497# 4.99e-20
C486 a_4814_n12795# a_4600_n12813# 1.69e-19
C487 w_n27_n12227# w_351_n12281# 0.001062f
C488 a_4201_n12710# a_3655_n12678# 4.96e-20
C489 a_1933_n12386# a_1790_n12363# 0.026302f
C490 a_1198_n12327# w_729_n12335# 0.001568f
C491 {sensor_temp_celsius\[9\]} a_799_n12224# 1.28e-20
C492 a_1198_n12327# a_845_n12224# 0.002229f
C493 a_2899_n12570# a_2168_n12417# 9.67e-21
C494 a_2546_n12471# a_2521_n12516# 0.024659f
C495 a_3491_n12602# a_2710_n12543# 1.13e-20
C496 a_4033_n12732# a_3445_n12602# 2.93e-20
C497 w_n27_n12227# a_820_n12273# 1.28e-20
C498 a_2546_n12471# w_2619_n12605# 0.006502f
C499 a_1954_n12435# a_1366_n12309# 5.98e-21
C500 a_1412_n12309# a_1223_n12278# 1.8e-20
C501 a_4058_n12687# a_4012_n12687# 0.133662f
C502 a_631_n12246# a_799_n12224# 0.002781f
C503 a_3869_n12656# a_3823_n12656# 0.313945f
C504 a_3491_n12602# w_3753_n12767# 0.003271f
C505 w_4131_n12821# a_4978_n12867# 7.93e-21
C506 a_1555_n12332# a_820_n12273# 1.28e-20
C507 a_3302_n12579# a_3088_n12597# 1.69e-19
C508 a_2122_n12417# a_2143_n12462# 0.024659f
C509 a_4033_n12732# a_4625_n12764# 4.52e-20
C510 a_467_n12170# a_278_n12147# 1.8e-20
C511 w_2997_n12659# a_3634_n12633# 8.73e-20
C512 a_2546_n12471# a_1954_n12435# 1.98e-20
C513 {adc_code\[0\]} VPWR 0.0352f
C514 a_1933_n12386# a_1387_n12354# 1.79e-20
C515 a_1009_n12300# a_1366_n12309# 0.002209f
C516 a_2710_n12543# a_2143_n12462# 0.001339f
C517 a_4625_n12764# w_4887_n12929# 0.002729f
C518 w_n27_n12227# a_232_n12147# 0.00703f
C519 a_3680_n12633# w_3753_n12767# 0.007422f
C520 a_467_n12170# a_610_n12201# 0.016618f
C521 a_2735_n12494# a_3277_n12624# 3.51e-20
C522 a_2924_n12525# a_2878_n12525# 0.133662f
C523 a_2899_n12570# w_2619_n12605# 0.006729f
C524 a_3655_n12678# a_3302_n12579# 8.32e-20
C525 a_1933_n12386# a_2521_n12516# 2.93e-20
C526 a_1555_n12332# w_1107_n12389# 7.66e-19
C527 a_1765_n12408# a_2122_n12417# 0.002209f
C528 a_1387_n12354# a_820_n12273# 2.9e-20
C529 a_253_n12192# a_1009_n12300# 5.04e-19
C530 a_1979_n12386# a_2122_n12417# 0.016618f
C531 w_1485_n12443# a_845_n12224# 9.86e-20
C532 {sensor_temp_celsius\[5\]} w_n27_n12227# 1.18e-19
C533 a_3491_n12602# a_3088_n12597# 4.44e-20
C534 a_4222_n12759# a_4247_n12710# 0.030168f
C535 a_4390_n12741# a_4247_n12710# 0.016618f
C536 a_4201_n12710# a_3466_n12651# 1.28e-20
C537 a_4600_n12813# w_4887_n12929# 2.95e-19
C538 a_1933_n12386# a_1954_n12435# 0.026776f
C539 a_1198_n12327# a_1765_n12408# 2.9e-20
C540 a_1576_n12381# w_729_n12335# 1.82e-20
C541 a_2710_n12543# a_1979_n12386# 1.72e-21
C542 a_2689_n12494# a_2521_n12516# 0.009834f
C543 a_3869_n12656# w_3753_n12767# 0.142985f
C544 a_1576_n12381# a_845_n12224# 1.85e-19
C545 {sensor_temp_celsius\[9\]} {sensor_temp_celsius\[6\]} 2.19e-19
C546 a_1198_n12327# a_1979_n12386# 1.13e-20
C547 a_3680_n12633# a_3088_n12597# 1.98e-20
C548 a_5192_n12849# a_4978_n12867# 1.69e-19
C549 a_4789_n12840# a_4390_n12741# 2.57e-20
C550 a_656_n12201# a_1198_n12327# 8.21e-21
C551 a_1009_n12300# a_442_n12219# 2.9e-20
C552 a_1387_n12354# w_1107_n12389# 0.006355f
C553 a_2689_n12494# w_2619_n12605# 0.116517f
C554 a_4625_n12764# a_4600_n12813# 0.032246f
C555 a_1744_n12363# a_2143_n12462# 6.52e-20
C556 a_1933_n12386# a_1601_n12332# 0.002148f
C557 w_1485_n12443# a_2143_n12462# 3.18e-19
C558 {sensor_temp_celsius\[12\]} {sensor_temp_celsius\[11\]} 0.0704f
C559 a_3491_n12602# a_3655_n12678# 0.007387f
C560 a_1009_n12300# w_351_n12281# 3.18e-19
C561 a_2899_n12570# a_3113_n12548# 3.57e-19
C562 a_2689_n12494# a_1954_n12435# 1.28e-20
C563 {sensor_temp_celsius\[1\]} {sensor_temp_celsius\[2\]} 0.0704f
C564 a_2710_n12543# a_3256_n12579# 2.39e-20
C565 a_4978_n12867# w_4509_n12875# 0.001561f
C566 a_5003_n12818# a_4978_n12867# 0.02553f
C567 w_2997_n12659# a_2899_n12570# 0.005939f
C568 a_4768_n12795# a_4411_n12786# 0.002209f
C569 a_4058_n12687# a_4411_n12786# 8.32e-20
C570 a_4033_n12732# w_4131_n12821# 0.005446f
C571 a_1576_n12381# a_2143_n12462# 2.9e-20
C572 a_820_n12273# a_1009_n12300# 0.001694f